/*--------------------------------*- C++ -*----------------------------------*\
  =========                 |
  \\      /  F ield         | OpenFOAM: The Open Source CFD Toolbox
   \\    /   O peration     | Website:  https://openfoam.org
    \\  /    A nd           | Version:  8
     \\/     M anipulation  |
\*---------------------------------------------------------------------------*/
FoamFile
{
    version     2.0;
    format      ascii;
    class       pointScalarField;
    location    "0";
    object      pointLevel;
}
// * * * * * * * * * * * * * * * * * * * * * * * * * * * * * * * * * * * * * //

dimensions      [0 0 0 0 0 0 0];

internalField   uniform 0;

boundaryField
{
    top
    {
        type            symmetryPlane;
    }
    inlet
    {
        type            calculated;
    }
    bottom
    {
        type            symmetryPlane;
    }
    outlet
    {
        type            calculated;
    }
    frontAndBack
    {
        type            empty;
    }
    solids
    {
        type            calculated;
    }
}


// ************************************************************************* //
